data_global
_cell_length_a 100.0000000000
_cell_length_b 100.0000000000
_cell_length_c 100.0000000000
_cell_angle_alpha 90.0000000000
_cell_angle_beta 90.0000000000
_cell_angle_gamma 90.0000000000
_symmetry_space_group_name_H-M 'P 1'
loop_
_atom_site_label
_atom_site_fract_x
_atom_site_fract_y
_atom_site_fract_z
O   0.0000000000 -0.0071600589 0.0000000000
H   0.0000000000 -0.0014199705 0.0077849456
H   0.0000000000 -0.0014199705 -0.0077849456
O   0.0000000000 -0.0071600589 0.1000000000
H   0.0000000000 -0.0014199705 0.1077849456
H   0.0000000000 -0.0014199705 0.0922150544
O   0.0000000000 -0.0071600589 0.2000000000
H   0.0000000000 -0.0014199705 0.2077849456
H   0.0000000000 -0.0014199705 0.1922150544
O   0.0000000000 -0.0071600589 0.3000000000
H   0.0000000000 -0.0014199705 0.3077849456
H   0.0000000000 -0.0014199705 0.2922150544
O   0.0000000000 0.0928399411 0.0000000000
H   0.0000000000 0.0985800295 0.0077849456
H   0.0000000000 0.0985800295 -0.0077849456
O   0.0000000000 0.0928399411 0.1000000000
H   0.0000000000 0.0985800295 0.1077849456
H   0.0000000000 0.0985800295 0.0922150544
O   0.0000000000 0.0928399411 0.2000000000
H   0.0000000000 0.0985800295 0.2077849456
H   0.0000000000 0.0985800295 0.1922150544
O   0.0000000000 0.0928399411 0.3000000000
H   0.0000000000 0.0985800295 0.3077849456
H   0.0000000000 0.0985800295 0.2922150544
O   0.0000000000 0.1928399411 0.0000000000
H   0.0000000000 0.1985800295 0.0077849456
H   0.0000000000 0.1985800295 -0.0077849456
O   0.0000000000 0.1928399411 0.1000000000
H   0.0000000000 0.1985800295 0.1077849456
H   0.0000000000 0.1985800295 0.0922150544
O   0.0000000000 0.1928399411 0.2000000000
H   0.0000000000 0.1985800295 0.2077849456
H   0.0000000000 0.1985800295 0.1922150544
O   0.0000000000 0.1928399411 0.3000000000
H   0.0000000000 0.1985800295 0.3077849456
H   0.0000000000 0.1985800295 0.2922150544
O   0.1000000000 -0.0071600589 0.0000000000
H   0.1000000000 -0.0014199705 0.0077849456
H   0.1000000000 -0.0014199705 -0.0077849456
O   0.1000000000 -0.0071600589 0.1000000000
H   0.1000000000 -0.0014199705 0.1077849456
H   0.1000000000 -0.0014199705 0.0922150544
O   0.1000000000 -0.0071600589 0.2000000000
H   0.1000000000 -0.0014199705 0.2077849456
H   0.1000000000 -0.0014199705 0.1922150544
O   0.1000000000 -0.0071600589 0.3000000000
H   0.1000000000 -0.0014199705 0.3077849456
H   0.1000000000 -0.0014199705 0.2922150544
O   0.1000000000 0.0928399411 0.0000000000
H   0.1000000000 0.0985800295 0.0077849456
H   0.1000000000 0.0985800295 -0.0077849456
O   0.1000000000 0.0928399411 0.1000000000
H   0.1000000000 0.0985800295 0.1077849456
H   0.1000000000 0.0985800295 0.0922150544
O   0.1000000000 0.0928399411 0.2000000000
H   0.1000000000 0.0985800295 0.2077849456
H   0.1000000000 0.0985800295 0.1922150544
O   0.1000000000 0.0928399411 0.3000000000
H   0.1000000000 0.0985800295 0.3077849456
H   0.1000000000 0.0985800295 0.2922150544
O   0.1000000000 0.1928399411 0.0000000000
H   0.1000000000 0.1985800295 0.0077849456
H   0.1000000000 0.1985800295 -0.0077849456
O   0.1000000000 0.1928399411 0.1000000000
H   0.1000000000 0.1985800295 0.1077849456
H   0.1000000000 0.1985800295 0.0922150544
O   0.1000000000 0.1928399411 0.2000000000
H   0.1000000000 0.1985800295 0.2077849456
H   0.1000000000 0.1985800295 0.1922150544
O   0.1000000000 0.1928399411 0.3000000000
H   0.1000000000 0.1985800295 0.3077849456
H   0.1000000000 0.1985800295 0.2922150544
